STAAD SPACE
START JOB INFORMATION
ENGINEER DATE 16-Aug-21
END JOB INFORMATION
INPUT WIDTH 79
UNIT METER KN
JOINT COORDINATES
1 0 0 0; 2 3.96241 0 0; 3 7.62002 0 0; 4 10.973 0 0; 5 0 0 -4.57201;
6 3.96201 0 -4.57201; 7 7.62002 0 -4.57201; 8 10.973 0 -4.57201;
9 7.62002 0 -3.04801; 10 10.973 0 -3.04801; 11 0 0 -6.70561;
12 3.96201 0 -6.70561; 13 7.62002 0 -6.70561; 14 10.973 0 -6.70561;
15 0 0 -10.3632; 16 3.96201 0 -10.3632; 17 7.62002 0 -10.3632;
18 10.973 0 -10.3632; 19 0 3.00001 0; 20 3.96241 3.00001 0;
21 7.62002 3.00001 0; 22 10.973 3.00001 0; 23 0 3.00001 -4.57201;
24 3.96201 3.00001 -4.57201; 25 7.62002 3.00001 -4.57201;
26 10.973 3.00001 -4.57201; 27 7.62002 3.00001 -3.04801;
28 10.973 3.00001 -3.04801; 29 0 3.00001 -6.70561; 30 3.96201 3.00001 -6.70561;
31 7.62002 3.00001 -6.70561; 32 10.973 3.00001 -6.70561; 33 0 3.00001 -10.3632;
34 3.96201 3.00001 -10.3632; 35 7.62002 3.00001 -10.3632;
36 10.973 3.00001 -10.3632; 37 0 6.00001 0; 38 3.96241 6.00001 0;
39 7.62002 6.00001 0; 40 10.973 6.00001 0; 41 0 6.00001 -4.57201;
42 3.96201 6.00001 -4.57201; 43 7.62002 6.00001 -4.57201;
44 10.973 6.00001 -4.57201; 45 7.62002 6.00001 -3.04801;
46 10.973 6.00001 -3.04801; 47 0 6.00001 -6.70561; 48 3.96201 6.00001 -6.70561;
49 7.62002 6.00001 -6.70561; 50 10.973 6.00001 -6.70561; 51 0 6.00001 -10.3632;
52 3.96201 6.00001 -10.3632; 53 7.62002 6.00001 -10.3632;
54 10.973 6.00001 -10.3632; 55 0 9.00002 0; 56 3.96241 9.00002 0;
# ... 14 like lines cut
MEMBER INCIDENCES
1 1 2; 2 2 3; 3 3 4; 4 4 10; 5 10 8; 6 8 7; 7 7 6; 8 6 5; 9 8 14; 10 14 13;
11 13 12; 12 12 11; 13 14 18; 14 18 17; 15 17 16; 16 16 15; 17 15 11; 18 16 12;
19 17 13; 20 11 5; 21 12 6; 22 13 7; 23 7 9; 24 9 3; 25 9 10; 26 6 2; 27 5 1;
42 1 19; 43 2 20; 44 3 21; 45 4 22; 46 5 23; 47 6 24; 48 7 25; 49 8 26;
50 9 27; 51 10 28; 52 11 29; 53 12 30; 54 13 31; 55 14 32; 56 15 33; 57 16 34;
58 17 35; 59 18 36; 60 19 20; 61 20 21; 62 21 22; 63 22 28; 64 28 26; 65 26 25;
66 25 24; 67 24 23; 68 26 32; 69 32 31; 70 31 30; 71 30 29; 72 32 36; 73 36 35;
74 35 34; 75 34 33; 76 33 29; 77 34 30; 78 35 31; 79 29 23; 80 30 24; 81 31 25;
82 25 27; 83 27 21; 84 27 28; 85 24 20; 86 23 19; 87 19 37; 88 20 38; 89 21 39;
90 22 40; 91 23 41; 92 24 42; 93 25 43; 94 26 44; 95 27 45; 96 28 46; 97 29 47;
98 30 48; 99 31 49; 100 32 50; 101 33 51; 102 34 52; 103 35 53; 104 36 54;
105 37 38; 106 38 39; 107 39 40; 108 40 46; 109 46 44; 110 44 43; 111 43 42;
112 42 41; 113 44 50; 114 50 49; 115 49 48; 116 48 47; 117 50 54; 118 54 53;
119 53 52; 120 52 51; 121 51 47; 122 52 48; 123 53 49; 124 47 41; 125 48 42;
126 49 43; 127 43 45; 128 45 39; 129 45 46; 130 42 38; 131 41 37; 132 37 55;
133 38 56; 134 39 57; 135 40 58; 136 41 59; 137 42 60; 138 43 61; 139 44 62;
140 45 63; 141 46 64; 142 47 65; 143 48 66; 144 49 67; 145 50 68; 146 51 69;
147 52 70; 148 53 71; 149 54 72; 150 55 56; 151 56 57; 152 57 58; 153 58 64;
154 64 62; 155 62 61; 156 61 60; 157 60 59; 158 62 68; 159 68 67; 160 67 66;
161 66 65; 162 68 72; 163 72 71; 164 71 70; 165 70 69; 166 69 65; 167 70 66;
# ... 5 like lines cut
ELEMENT INCIDENCES SHELL
28 15 16 12 11; 29 16 17 13 12; 30 17 18 14 13; 31 11 12 6 5; 32 12 13 7 6;
33 13 14 8 7; 34 5 6 2 1; 35 6 7 3 2; 36 7 8 10 9; 37 9 10 4 3; 38 15 11 12 16;
39 5 1 2 6; 40 2 3 7 6; 41 11 5 6 12; 203 33 34 30 29; 204 34 35 31 30;
205 35 36 32 31; 206 29 30 24 23; 207 30 31 25 24; 208 31 32 26 25;
209 23 24 20 19; 210 24 25 21 20; 211 25 26 28 27; 212 27 28 22 21;
213 51 52 48 47; 214 52 53 49 48; 215 53 54 50 49; 216 47 48 42 41;
217 48 49 43 42; 218 49 50 44 43; 219 41 42 38 37; 220 42 43 39 38;
221 43 44 46 45; 222 45 46 40 39; 223 69 70 66 65; 224 70 71 67 66;
225 71 72 68 67; 226 65 66 60 59; 227 66 67 61 60; 228 67 68 62 61;
229 59 60 56 55; 230 60 61 57 56; 231 61 62 64 63; 232 63 64 58 57;
233 93 94 92 91;
ELEMENT PROPERTY
28 TO 41 203 TO 233 THICKNESS 0.1
DEFINE MATERIAL START
ISOTROPIC CONCRETE
E 2.17184e+007
POISSON 0.17
DENSITY 23.6158
ALPHA 5e-006
DAMP 0.05
TYPE CONCRETE
STRENGTH FCU 27578.9
END DEFINE MATERIAL
MEMBER PROPERTY AMERICAN
42 TO 59 87 TO 104 132 TO 149 177 TO 198 PRIS YD 0.4 ZD 0.4
1 TO 27 60 TO 86 105 TO 131 150 TO 176 199 TO 202 PRIS YD 0.4 ZD 0.25
CONSTANTS
MATERIAL CONCRETE ALL
SUPPORTS
73 TO 90 FIXED
MEMBER OFFSET
1 TO 27 60 TO 86 105 TO 131 150 TO 176 199 TO 202 START 0 -0.15 0
1 TO 27 60 TO 86 105 TO 131 150 TO 176 199 TO 202 END 0 -0.15 0
132 TO 149 195 TO 198 END 0 0.05 0
CUT OFF MODE SHAPE 10
DEFINE 1893 LOAD
ZONE 0.36 RF 3 I 1 SS 2 ST 1 DM 0.05
MEMBER WEIGHT
1 TO 5 9 13 TO 17 20 27 60 62 TO 64 68 72 TO 76 79 86 105 107 TO 109 113 117 -
118 TO 121 124 131 158 UNI 13.208
6 8 10 12 18 19 21 TO 26 65 67 69 71 77 78 80 TO 85 110 112 114 116 122 123 -
125 TO 130 155 159 171 UNI 6.604
FLOOR WEIGHT
YRANGE 2 8 FLOAD 1.5
LOAD 1 LOADTYPE Dead  TITLE DL
SELFWEIGHT X 1 
SELFWEIGHT Y 1 
SELFWEIGHT Z 1 
FLOOR LOAD
YRANGE 2 10 FLOAD 3 GX
YRANGE 2 10 FLOAD 3 GY
YRANGE 2 10 FLOAD 3 GZ
MODAL CALCULATION REQUESTED
SPECTRUM CQC 1893 X 0.06 Z 0.06 ACC DAMP 0.05
SOIL TYPE 2
MEMBER LOAD
1 TO 5 9 13 TO 17 20 27 60 62 TO 64 68 72 TO 76 79 86 105 107 TO 109 113 117 -
118 TO 121 124 131 158 UNI GX 13.208
1 TO 5 9 13 TO 17 20 27 60 62 TO 64 68 72 TO 76 79 86 105 107 TO 109 113 117 -
118 TO 121 124 131 158 UNI GY 13.208
1 TO 5 9 13 TO 17 20 27 60 62 TO 64 68 72 TO 76 79 86 105 107 TO 109 113 117 -
118 TO 121 124 131 158 UNI GZ 13.208
6 8 10 12 18 19 21 TO 26 65 67 69 71 77 78 80 TO 85 110 112 114 116 122 123 -
125 TO 130 155 159 171 UNI GX 6.604
6 8 10 12 18 19 21 TO 26 65 67 69 71 77 78 80 TO 85 110 112 114 116 122 123 -
125 TO 130 155 159 171 UNI GY 6.604
6 8 10 12 18 19 21 TO 26 65 67 69 71 77 78 80 TO 85 110 112 114 116 122 123 -
125 TO 130 155 159 171 UNI GZ 6.604
PERFORM ANALYSIS
PERFORM ANALYSIS
PERFORM ANALYSIS
PERFORM ANALYSIS
FINISH
